72393
  -OEChem-09052414332D

 79 81  0     1  0  0  0  0  0999 V2000
    6.8671   -2.5106    0.0000 O   0  0  0  0  0  0  0  0  0  0  0  0
    8.8671   -2.5106    0.0000 O   0  0  0  0  0  0  0  0  0  0  0  0
    9.8671   -0.7785    0.0000 O   0  0  0  0  0  0  0  0  0  0  0  0
    5.1350   -2.5106    0.0000 O   0  0  0  0  0  0  0  0  0  0  0  0
   10.4548   -1.7016    0.0000 O   0  0  0  0  0  0  0  0  0  0  0  0
   10.1458   -4.2707    0.0000 O   0  0  0  0  0  0  0  0  0  0  0  0
    5.1350   -5.5106    0.0000 O   0  0  0  0  0  0  0  0  0  0  0  0
    3.4030   -4.5106    0.0000 O   0  0  0  0  0  0  0  0  0  0  0  0
   12.2149   -3.5984    0.0000 O   0  0  0  0  0  0  0  0  0  0  0  0
   13.1285   -1.8295    0.0000 O   0  0  0  0  0  0  0  0  0  0  0  0
    7.3671    1.8195    0.0000 O   0  0  0  0  0  0  0  0  0  0  0  0
    9.8671    2.6856    0.0000 O   0  0  0  0  0  0  0  0  0  0  0  0
    8.8671    0.9535    0.0000 N   0  0  0  0  0  0  0  0  0  0  0  0
    5.8671   -0.7785    0.0000 N   0  0  0  0  0  0  0  0  0  0  0  0
    6.8671   -4.5106    0.0000 N   0  0  0  0  0  0  0  0  0  0  0  0
    2.5369   -3.0106    0.0000 N   0  0  0  0  0  0  0  0  0  0  0  0
    8.3671    5.2836    0.0000 N   0  0  0  0  0  0  0  0  0  0  0  0
    7.3671   -1.6446    0.0000 C   0  0  1  0  0  0  0  0  0  0  0  0
    8.3671   -1.6446    0.0000 C   0  0  1  0  0  0  0  0  0  0  0  0
    6.8671   -0.7785    0.0000 C   0  0  2  0  0  0  0  0  0  0  0  0
    8.8671   -0.7785    0.0000 C   0  0  2  0  0  0  0  0  0  0  0  0
    8.3671    0.0875    0.0000 C   0  0  1  0  0  0  0  0  0  0  0  0
    7.3671    0.0875    0.0000 C   0  0  0  0  0  0  0  0  0  0  0  0
    6.0010   -3.0106    0.0000 C   0  0  1  0  0  0  0  0  0  0  0  0
    9.8671   -2.5106    0.0000 C   0  0  1  0  0  0  0  0  0  0  0  0
    6.0010   -4.0106    0.0000 C   0  0  1  0  0  0  0  0  0  0  0  0
   10.4548   -3.3196    0.0000 C   0  0  1  0  0  0  0  0  0  0  0  0
    5.1350   -4.5106    0.0000 C   0  0  2  0  0  0  0  0  0  0  0  0
    4.2690   -4.0106    0.0000 C   0  0  1  0  0  0  0  0  0  0  0  0
    4.2690   -3.0106    0.0000 C   0  0  1  0  0  0  0  0  0  0  0  0
   11.4059   -3.0106    0.0000 C   0  0  1  0  0  0  0  0  0  0  0  0
   11.4059   -2.0106    0.0000 C   0  0  1  0  0  0  0  0  0  0  0  0
    8.3671    1.8195    0.0000 C   0  0  0  0  0  0  0  0  0  0  0  0
    3.4030   -2.5106    0.0000 C   0  0  0  0  0  0  0  0  0  0  0  0
   12.2149   -1.4228    0.0000 C   0  0  0  0  0  0  0  0  0  0  0  0
    8.8671    2.6856    0.0000 C   0  0  1  0  0  0  0  0  0  0  0  0
    8.3671    3.5516    0.0000 C   0  0  0  0  0  0  0  0  0  0  0  0
    8.8671    4.4176    0.0000 C   0  0  0  0  0  0  0  0  0  0  0  0
    6.7471   -1.6446    0.0000 H   0  0  0  0  0  0  0  0  0  0  0  0
    8.9871   -1.6446    0.0000 H   0  0  0  0  0  0  0  0  0  0  0  0
    6.5571   -0.2416    0.0000 H   0  0  0  0  0  0  0  0  0  0  0  0
    9.1771   -0.2416    0.0000 H   0  0  0  0  0  0  0  0  0  0  0  0
    8.0571    0.6244    0.0000 H   0  0  0  0  0  0  0  0  0  0  0  0
    7.4747    0.6981    0.0000 H   0  0  0  0  0  0  0  0  0  0  0  0
    6.7844    0.2995    0.0000 H   0  0  0  0  0  0  0  0  0  0  0  0
    6.0010   -2.3906    0.0000 H   0  0  0  0  0  0  0  0  0  0  0  0
    9.5856   -3.0630    0.0000 H   0  0  0  0  0  0  0  0  0  0  0  0
    6.5380   -3.7006    0.0000 H   0  0  0  0  0  0  0  0  0  0  0  0
    9.4871    0.9535    0.0000 H   0  0  0  0  0  0  0  0  0  0  0  0
   10.8933   -3.7580    0.0000 H   0  0  0  0  0  0  0  0  0  0  0  0
    5.6720   -4.8206    0.0000 H   0  0  0  0  0  0  0  0  0  0  0  0
    5.5571   -0.2416    0.0000 H   0  0  0  0  0  0  0  0  0  0  0  0
    5.5571   -1.3155    0.0000 H   0  0  0  0  0  0  0  0  0  0  0  0
    4.2690   -4.6306    0.0000 H   0  0  0  0  0  0  0  0  0  0  0  0
    4.2690   -2.3906    0.0000 H   0  0  0  0  0  0  0  0  0  0  0  0
   11.3089   -3.6230    0.0000 H   0  0  0  0  0  0  0  0  0  0  0  0
   11.3089   -1.3982    0.0000 H   0  0  0  0  0  0  0  0  0  0  0  0
   10.1771   -0.2416    0.0000 H   0  0  0  0  0  0  0  0  0  0  0  0
    3.8015   -2.0356    0.0000 H   0  0  0  0  0  0  0  0  0  0  0  0
    3.0044   -2.0356    0.0000 H   0  0  0  0  0  0  0  0  0  0  0  0
    6.8671   -5.1306    0.0000 H   0  0  0  0  0  0  0  0  0  0  0  0
    7.4040   -4.2006    0.0000 H   0  0  0  0  0  0  0  0  0  0  0  0
   12.5616   -0.9088    0.0000 H   0  0  0  0  0  0  0  0  0  0  0  0
   11.7689   -0.9921    0.0000 H   0  0  0  0  0  0  0  0  0  0  0  0
   10.5607   -4.7314    0.0000 H   0  0  0  0  0  0  0  0  0  0  0  0
    9.1771    3.2225    0.0000 H   0  0  0  0  0  0  0  0  0  0  0  0
    4.5981   -5.8206    0.0000 H   0  0  0  0  0  0  0  0  0  0  0  0
    3.4030   -5.1306    0.0000 H   0  0  0  0  0  0  0  0  0  0  0  0
   12.1501   -4.2150    0.0000 H   0  0  0  0  0  0  0  0  0  0  0  0
    7.8921    3.9501    0.0000 H   0  0  0  0  0  0  0  0  0  0  0  0
    7.8921    3.1531    0.0000 H   0  0  0  0  0  0  0  0  0  0  0  0
    2.0000   -2.7006    0.0000 H   0  0  0  0  0  0  0  0  0  0  0  0
    2.5369   -3.6306    0.0000 H   0  0  0  0  0  0  0  0  0  0  0  0
   13.6301   -1.4651    0.0000 H   0  0  0  0  0  0  0  0  0  0  0  0
   10.1771    3.2225    0.0000 H   0  0  0  0  0  0  0  0  0  0  0  0
    9.3420    4.0191    0.0000 H   0  0  0  0  0  0  0  0  0  0  0  0
    9.3420    4.8162    0.0000 H   0  0  0  0  0  0  0  0  0  0  0  0
    8.6771    5.8206    0.0000 H   0  0  0  0  0  0  0  0  0  0  0  0
    7.7471    5.2836    0.0000 H   0  0  0  0  0  0  0  0  0  0  0  0
 18  1  1  6  0  0  0
 24  1  1  6  0  0  0
 19  2  1  1  0  0  0
 25  2  1  1  0  0  0
 21  3  1  6  0  0  0
  3 58  1  0  0  0  0
  4 24  1  0  0  0  0
  4 30  1  0  0  0  0
  5 25  1  0  0  0  0
  5 32  1  0  0  0  0
 27  6  1  1  0  0  0
  6 65  1  0  0  0  0
 28  7  1  1  0  0  0
  7 67  1  0  0  0  0
 29  8  1  6  0  0  0
  8 68  1  0  0  0  0
 31  9  1  1  0  0  0
  9 69  1  0  0  0  0
 10 35  1  0  0  0  0
 10 74  1  0  0  0  0
 11 33  2  0  0  0  0
 36 12  1  1  0  0  0
 12 75  1  0  0  0  0
 22 13  1  1  0  0  0
 13 33  1  0  0  0  0
 13 49  1  0  0  0  0
 20 14  1  1  0  0  0
 14 52  1  0  0  0  0
 14 53  1  0  0  0  0
 26 15  1  6  0  0  0
 15 61  1  0  0  0  0
 15 62  1  0  0  0  0
 16 34  1  0  0  0  0
 16 72  1  0  0  0  0
 16 73  1  0  0  0  0
 17 38  1  0  0  0  0
 17 78  1  0  0  0  0
 17 79  1  0  0  0  0
 18 19  1  0  0  0  0
 18 20  1  0  0  0  0
 18 39  1  0  0  0  0
 19 21  1  0  0  0  0
 19 40  1  0  0  0  0
 20 23  1  0  0  0  0
 20 41  1  0  0  0  0
 21 22  1  0  0  0  0
 21 42  1  0  0  0  0
 22 23  1  0  0  0  0
 22 43  1  0  0  0  0
 23 44  1  0  0  0  0
 23 45  1  0  0  0  0
 24 26  1  0  0  0  0
 24 46  1  0  0  0  0
 25 27  1  0  0  0  0
 25 47  1  0  0  0  0
 26 28  1  0  0  0  0
 26 48  1  0  0  0  0
 27 31  1  0  0  0  0
 27 50  1  0  0  0  0
 28 29  1  0  0  0  0
 28 51  1  0  0  0  0
 29 30  1  0  0  0  0
 29 54  1  0  0  0  0
 30 34  1  1  0  0  0
 30 55  1  0  0  0  0
 31 32  1  0  0  0  0
 31 56  1  0  0  0  0
 32 35  1  6  0  0  0
 32 57  1  0  0  0  0
 33 36  1  0  0  0  0
 34 59  1  0  0  0  0
 34 60  1  0  0  0  0
 35 63  1  0  0  0  0
 35 64  1  0  0  0  0
 36 37  1  0  0  0  0
 36 66  1  0  0  0  0
 37 38  1  0  0  0  0
 37 70  1  0  0  0  0
 37 71  1  0  0  0  0
 38 76  1  0  0  0  0
 38 77  1  0  0  0  0
M  END
> <PUBCHEM_COMPOUND_CID>
72393

> <PUBCHEM_COMPOUND_CANONICALIZED>
1

> <PUBCHEM_CACTVS_COMPLEXITY>
772

> <PUBCHEM_CACTVS_HBOND_ACCEPTOR>
16

> <PUBCHEM_CACTVS_HBOND_DONOR>
12

> <PUBCHEM_CACTVS_ROTATABLE_BOND>
10

> <PUBCHEM_CACTVS_SUBSKEYS>
AAADcfB7vAAAAAAAAAAAAAAAAAAAASAAAAA0QAAAAAAAAAAAAAAAHgAQCAAACDzxgAcACALABgAIAAEQEAIAAAAAAAAAAIFIAAATEBIAwAAnQAAHFgCXAAH0cA8AAAAAAAAAAAAAgAAUCACgAAAAAAAAAA==

> <PUBCHEM_IUPAC_OPENEYE_NAME>
(2R)-4-amino-N-[(1R,2S,3R,4R,5S)-5-amino-4-[(2R,3R,4R,5S,6R)-3-amino-6-(aminomethyl)-4,5-dihydroxy-tetrahydropyran-2-yl]oxy-3-[(2R,3R,4S,5R)-3,4-dihydroxy-5-(hydroxymethyl)tetrahydrofuran-2-yl]oxy-2-hydroxy-cyclohexyl]-2-hydroxy-butanamide

> <PUBCHEM_IUPAC_CAS_NAME>
(2R)-4-amino-N-[(1R,2S,3R,4R,5S)-5-amino-4-[[(2R,3R,4R,5S,6R)-3-amino-6-(aminomethyl)-4,5-dihydroxy-2-oxanyl]oxy]-3-[[(2R,3R,4S,5R)-3,4-dihydroxy-5-(hydroxymethyl)-2-oxolanyl]oxy]-2-hydroxycyclohexyl]-2-hydroxybutanamide

> <PUBCHEM_IUPAC_NAME_MARKUP>
(2<I>R</I>)-4-amino-<I>N</I>-[(1<I>R</I>,2<I>S</I>,3<I>R</I>,4<I>R</I>,5<I>S</I>)-5-amino-4-[(2<I>R</I>,3<I>R</I>,4<I>R</I>,5<I>S</I>,6<I>R</I>)-3-amino-6-(aminomethyl)-4,5-dihydroxyoxan-2-yl]oxy-3-[(2<I>R</I>,3<I>R</I>,4<I>S</I>,5<I>R</I>)-3,4-dihydroxy-5-(hydroxymethyl)oxolan-2-yl]oxy-2-hydroxycyclohexyl]-2-hydroxybutanamide

> <PUBCHEM_IUPAC_NAME>
(2R)-4-amino-N-[(1R,2S,3R,4R,5S)-5-amino-4-[(2R,3R,4R,5S,6R)-3-amino-6-(aminomethyl)-4,5-dihydroxyoxan-2-yl]oxy-3-[(2R,3R,4S,5R)-3,4-dihydroxy-5-(hydroxymethyl)oxolan-2-yl]oxy-2-hydroxycyclohexyl]-2-hydroxybutanamide

> <PUBCHEM_IUPAC_SYSTEMATIC_NAME>
(2R)-N-[(1R,2S,3R,4R,5S)-4-[(2R,3R,4R,5S,6R)-6-(aminomethyl)-3-azanyl-4,5-bis(oxidanyl)oxan-2-yl]oxy-5-azanyl-3-[(2R,3R,4S,5R)-5-(hydroxymethyl)-3,4-bis(oxidanyl)oxolan-2-yl]oxy-2-oxidanyl-cyclohexyl]-4-azanyl-2-oxidanyl-butanamide

> <PUBCHEM_IUPAC_TRADITIONAL_NAME>
(2R)-4-amino-N-[(1R,2S,3R,4R,5S)-5-amino-4-[(2R,3R,4R,5S,6R)-3-amino-6-(aminomethyl)-4,5-dihydroxy-tetrahydropyran-2-yl]oxy-3-[(2R,3R,4S,5R)-3,4-dihydroxy-5-methylol-tetrahydrofuran-2-yl]oxy-2-hydroxy-cyclohexyl]-2-hydroxy-butyramide

> <PUBCHEM_IUPAC_INCHI>
InChI=1S/C21H41N5O12/c22-2-1-8(28)19(34)26-7-3-6(24)17(37-20-11(25)15(32)13(30)9(4-23)35-20)18(12(7)29)38-21-16(33)14(31)10(5-27)36-21/h6-18,20-21,27-33H,1-5,22-25H2,(H,26,34)/t6-,7+,8+,9+,10+,11+,12-,13+,14+,15+,16+,17+,18+,20+,21+/m0/s1

> <PUBCHEM_IUPAC_INCHIKEY>
XEQLFNPSYWZPOW-NUOYRARPSA-N

> <PUBCHEM_XLOGP3_AA>
-7.3

> <PUBCHEM_EXACT_MASS>
555.27517176

> <PUBCHEM_MOLECULAR_FORMULA>
C21H41N5O12

> <PUBCHEM_MOLECULAR_WEIGHT>
555.6

> <PUBCHEM_OPENEYE_CAN_SMILES>
C1C(C(C(C(C1NC(=O)C(CCN)O)O)OC2C(C(C(O2)CO)O)O)OC3C(C(C(C(O3)CN)O)O)N)N

> <PUBCHEM_OPENEYE_ISO_SMILES>
C1[C@@H]([C@H]([C@@H]([C@H]([C@@H]1NC(=O)[C@@H](CCN)O)O)O[C@@H]2[C@@H]([C@@H]([C@H](O2)CO)O)O)O[C@@H]3[C@@H]([C@H]([C@@H]([C@H](O3)CN)O)O)N)N

> <PUBCHEM_CACTVS_TPSA>
312

> <PUBCHEM_MONOISOTOPIC_WEIGHT>
555.27517176

> <PUBCHEM_TOTAL_CHARGE>
0

> <PUBCHEM_HEAVY_ATOM_COUNT>
38

> <PUBCHEM_ATOM_DEF_STEREO_COUNT>
15

> <PUBCHEM_ATOM_UDEF_STEREO_COUNT>
0

> <PUBCHEM_BOND_DEF_STEREO_COUNT>
0

> <PUBCHEM_BOND_UDEF_STEREO_COUNT>
0

> <PUBCHEM_ISOTOPIC_ATOM_COUNT>
0

> <PUBCHEM_COMPONENT_COUNT>
1

> <PUBCHEM_CACTVS_TAUTO_COUNT>
-1

> <PUBCHEM_COORDINATE_TYPE>
1
5
255

> <PUBCHEM_BONDANNOTATIONS>
18  1  6
24  1  6
36  12  5
22  13  5
20  14  5
26  15  6
19  2  5
25  2  5
21  3  6
30  34  5
32  35  6
27  6  5
28  7  5
29  8  6
31  9  5

$$$$
