6444330
  -OEChem-09052414402D

116118  0     1  0  0  0  0  0999 V2000
   11.1972    2.5000    0.0000 O   0  0  0  0  0  0  0  0  0  0  0  0
   10.3312    4.0000    0.0000 O   0  0  0  0  0  0  0  0  0  0  0  0
   12.9292    3.5000    0.0000 O   0  0  0  0  0  0  0  0  0  0  0  0
   11.1972    6.5000    0.0000 O   0  0  0  0  0  0  0  0  0  0  0  0
    7.7331    2.5000    0.0000 O   0  0  0  0  0  0  0  0  0  0  0  0
    7.7331   -0.5000    0.0000 O   0  0  0  0  0  0  0  0  0  0  0  0
    4.2690   -3.5000    0.0000 O   0  0  0  0  0  0  0  0  0  0  0  0
    6.0010   -3.5000    0.0000 O   0  0  0  0  0  0  0  0  0  0  0  0
    6.0010   -5.5000    0.0000 O   0  0  0  0  0  0  0  0  0  0  0  0
   11.1972   -0.5000    0.0000 O   0  0  0  0  0  0  0  0  0  0  0  0
   12.9292    0.5000    0.0000 O   0  0  0  0  0  0  0  0  0  0  0  0
    4.2690   -6.5000    0.0000 O   0  0  0  0  0  0  0  0  0  0  0  0
    2.5369   -5.5000    0.0000 O   0  0  0  0  0  0  0  0  0  0  0  0
    6.8671    1.0000    0.0000 O   0  0  0  0  0  0  0  0  0  0  0  0
   12.9292    5.5000    0.0000 N   0  0  0  0  0  0  0  0  0  0  0  0
   10.3312    2.0000    0.0000 C   0  0  3  0  0  0  0  0  0  0  0  0
   10.3312    1.0000    0.0000 C   0  0  3  0  0  0  0  0  0  0  0  0
   12.0632    5.0000    0.0000 C   0  0  3  0  0  0  0  0  0  0  0  0
    9.4651    2.5000    0.0000 C   0  0  3  0  0  0  0  0  0  0  0  0
   12.0632    4.0000    0.0000 C   0  0  3  0  0  0  0  0  0  0  0  0
   11.1972    3.5000    0.0000 C   0  0  3  0  0  0  0  0  0  0  0  0
   11.1972    5.5000    0.0000 C   0  0  3  0  0  0  0  0  0  0  0  0
   10.3312    5.0000    0.0000 C   0  0  3  0  0  0  0  0  0  0  0  0
    9.4651    0.5000    0.0000 C   0  0  0  0  0  0  0  0  0  0  0  0
    8.5991    2.0000    0.0000 C   0  0  3  0  0  0  0  0  0  0  0  0
   11.1972    0.5000    0.0000 C   0  0  0  0  0  0  0  0  0  0  0  0
    9.4651   -0.5000    0.0000 C   0  0  3  0  0  0  0  0  0  0  0  0
    9.4651    3.5000    0.0000 C   0  0  0  0  0  0  0  0  0  0  0  0
    8.5991    1.0000    0.0000 C   0  0  0  0  0  0  0  0  0  0  0  0
    9.4651    5.5000    0.0000 C   0  0  0  0  0  0  0  0  0  0  0  0
   12.9292    6.5000    0.0000 C   0  0  0  0  0  0  0  0  0  0  0  0
   13.7953    5.0000    0.0000 C   0  0  0  0  0  0  0  0  0  0  0  0
    9.4651   -1.5000    0.0000 C   0  0  0  0  0  0  0  0  0  0  0  0
   10.3312   -1.0000    0.0000 C   0  0  0  0  0  0  0  0  0  0  0  0
   12.0632    1.0000    0.0000 C   0  0  0  0  0  0  0  0  0  0  0  0
    7.7331    0.5000    0.0000 C   0  0  0  0  0  0  0  0  0  0  0  0
    5.1350   -5.0000    0.0000 C   0  0  3  0  0  0  0  0  0  0  0  0
    6.8671   -1.0000    0.0000 C   0  0  3  0  0  0  0  0  0  0  0  0
    6.8671   -2.0000    0.0000 C   0  0  3  0  0  0  0  0  0  0  0  0
    4.2690   -5.5000    0.0000 C   0  0  3  0  0  0  0  0  0  0  0  0
    5.1350   -4.0000    0.0000 C   0  0  3  0  0  0  0  0  0  0  0  0
    3.4030   -5.0000    0.0000 C   0  0  3  0  0  0  0  0  0  0  0  0
    3.4030   -4.0000    0.0000 C   0  0  3  0  0  0  0  0  0  0  0  0
    6.0010   -2.5000    0.0000 C   0  0  0  0  0  0  0  0  0  0  0  0
   10.3312   -2.0000    0.0000 C   0  0  0  0  0  0  0  0  0  0  0  0
    6.0010   -0.5000    0.0000 C   0  0  0  0  0  0  0  0  0  0  0  0
    7.7331   -2.5000    0.0000 C   0  0  0  0  0  0  0  0  0  0  0  0
    2.5369   -3.5000    0.0000 C   0  0  0  0  0  0  0  0  0  0  0  0
    8.5991   -2.0000    0.0000 C   0  0  0  0  0  0  0  0  0  0  0  0
    9.4651   -2.5000    0.0000 C   0  0  0  0  0  0  0  0  0  0  0  0
    5.1350   -1.0000    0.0000 C   0  0  0  0  0  0  0  0  0  0  0  0
    8.5991   -1.0000    0.0000 C   0  0  0  0  0  0  0  0  0  0  0  0
    6.8671   -5.0000    0.0000 C   0  0  0  0  0  0  0  0  0  0  0  0
   10.8681    1.6900    0.0000 H   0  0  0  0  0  0  0  0  0  0  0  0
   10.3312    0.3800    0.0000 H   0  0  0  0  0  0  0  0  0  0  0  0
   10.0021    2.8100    0.0000 H   0  0  0  0  0  0  0  0  0  0  0  0
   12.0632    5.6200    0.0000 H   0  0  0  0  0  0  0  0  0  0  0  0
   12.6002    4.3100    0.0000 H   0  0  0  0  0  0  0  0  0  0  0  0
   10.6603    3.1900    0.0000 H   0  0  0  0  0  0  0  0  0  0  0  0
   10.6603    5.8100    0.0000 H   0  0  0  0  0  0  0  0  0  0  0  0
    9.7942    4.6900    0.0000 H   0  0  0  0  0  0  0  0  0  0  0  0
    9.2531    1.0826    0.0000 H   0  0  0  0  0  0  0  0  0  0  0  0
    8.8546    0.3923    0.0000 H   0  0  0  0  0  0  0  0  0  0  0  0
    8.5991    2.6200    0.0000 H   0  0  0  0  0  0  0  0  0  0  0  0
   10.7987    0.0251    0.0000 H   0  0  0  0  0  0  0  0  0  0  0  0
   11.5957    0.0251    0.0000 H   0  0  0  0  0  0  0  0  0  0  0  0
    8.8451   -0.5000    0.0000 H   0  0  0  0  0  0  0  0  0  0  0  0
   10.0851    3.5000    0.0000 H   0  0  0  0  0  0  0  0  0  0  0  0
    9.4651    4.1200    0.0000 H   0  0  0  0  0  0  0  0  0  0  0  0
    8.8451    3.5000    0.0000 H   0  0  0  0  0  0  0  0  0  0  0  0
    8.8112    0.4174    0.0000 H   0  0  0  0  0  0  0  0  0  0  0  0
    9.2097    1.1077    0.0000 H   0  0  0  0  0  0  0  0  0  0  0  0
    9.7751    6.0369    0.0000 H   0  0  0  0  0  0  0  0  0  0  0  0
    8.9282    5.8100    0.0000 H   0  0  0  0  0  0  0  0  0  0  0  0
    9.1551    4.9631    0.0000 H   0  0  0  0  0  0  0  0  0  0  0  0
   13.4662    3.8100    0.0000 H   0  0  0  0  0  0  0  0  0  0  0  0
   10.6603    6.8100    0.0000 H   0  0  0  0  0  0  0  0  0  0  0  0
   13.5492    6.5000    0.0000 H   0  0  0  0  0  0  0  0  0  0  0  0
   12.9292    7.1200    0.0000 H   0  0  0  0  0  0  0  0  0  0  0  0
   12.3092    6.5000    0.0000 H   0  0  0  0  0  0  0  0  0  0  0  0
   13.4853    4.4631    0.0000 H   0  0  0  0  0  0  0  0  0  0  0  0
   14.3322    4.6900    0.0000 H   0  0  0  0  0  0  0  0  0  0  0  0
   14.1053    5.5369    0.0000 H   0  0  0  0  0  0  0  0  0  0  0  0
    8.8451   -1.5000    0.0000 H   0  0  0  0  0  0  0  0  0  0  0  0
    9.4651   -2.1200    0.0000 H   0  0  0  0  0  0  0  0  0  0  0  0
   10.0851   -1.5000    0.0000 H   0  0  0  0  0  0  0  0  0  0  0  0
   12.0632    1.6200    0.0000 H   0  0  0  0  0  0  0  0  0  0  0  0
    7.7331    3.1200    0.0000 H   0  0  0  0  0  0  0  0  0  0  0  0
    5.1350   -5.6200    0.0000 H   0  0  0  0  0  0  0  0  0  0  0  0
    6.8671   -2.6200    0.0000 H   0  0  0  0  0  0  0  0  0  0  0  0
    6.8671   -0.3800    0.0000 H   0  0  0  0  0  0  0  0  0  0  0  0
    3.7320   -5.8100    0.0000 H   0  0  0  0  0  0  0  0  0  0  0  0
    5.1350   -3.3800    0.0000 H   0  0  0  0  0  0  0  0  0  0  0  0
    3.4030   -5.6200    0.0000 H   0  0  0  0  0  0  0  0  0  0  0  0
    3.4030   -3.3800    0.0000 H   0  0  0  0  0  0  0  0  0  0  0  0
    5.7890   -1.9174    0.0000 H   0  0  0  0  0  0  0  0  0  0  0  0
    5.3905   -2.6077    0.0000 H   0  0  0  0  0  0  0  0  0  0  0  0
   10.8681   -2.3100    0.0000 H   0  0  0  0  0  0  0  0  0  0  0  0
    6.3996   -0.0251    0.0000 H   0  0  0  0  0  0  0  0  0  0  0  0
    5.6025   -0.0251    0.0000 H   0  0  0  0  0  0  0  0  0  0  0  0
    7.7331   -3.1200    0.0000 H   0  0  0  0  0  0  0  0  0  0  0  0
    2.8469   -2.9631    0.0000 H   0  0  0  0  0  0  0  0  0  0  0  0
    2.0000   -3.1900    0.0000 H   0  0  0  0  0  0  0  0  0  0  0  0
    2.2269   -4.0369    0.0000 H   0  0  0  0  0  0  0  0  0  0  0  0
    9.4651   -3.1200    0.0000 H   0  0  0  0  0  0  0  0  0  0  0  0
    3.7320   -6.8100    0.0000 H   0  0  0  0  0  0  0  0  0  0  0  0
    2.0000   -5.1900    0.0000 H   0  0  0  0  0  0  0  0  0  0  0  0
    4.8250   -0.4631    0.0000 H   0  0  0  0  0  0  0  0  0  0  0  0
    4.5981   -1.3100    0.0000 H   0  0  0  0  0  0  0  0  0  0  0  0
    5.4450   -1.5369    0.0000 H   0  0  0  0  0  0  0  0  0  0  0  0
    9.2191   -1.0000    0.0000 H   0  0  0  0  0  0  0  0  0  0  0  0
    8.5991   -0.3800    0.0000 H   0  0  0  0  0  0  0  0  0  0  0  0
    7.9791   -1.0000    0.0000 H   0  0  0  0  0  0  0  0  0  0  0  0
    7.1771   -5.5369    0.0000 H   0  0  0  0  0  0  0  0  0  0  0  0
    7.4040   -4.6900    0.0000 H   0  0  0  0  0  0  0  0  0  0  0  0
    6.5571   -4.4631    0.0000 H   0  0  0  0  0  0  0  0  0  0  0  0
  1 16  1  0  0  0  0
  1 21  1  0  0  0  0
  2 21  1  0  0  0  0
  2 23  1  0  0  0  0
  3 20  1  0  0  0  0
  3 76  1  0  0  0  0
  4 22  1  0  0  0  0
  4 77  1  0  0  0  0
  5 25  1  0  0  0  0
  5 88  1  0  0  0  0
  6 36  1  0  0  0  0
  6 38  1  0  0  0  0
  7 41  1  0  0  0  0
  7 43  1  0  0  0  0
  8 41  1  0  0  0  0
  8 44  1  0  0  0  0
  9 37  1  0  0  0  0
  9 53  1  0  0  0  0
 10 34  2  0  0  0  0
 11 35  2  0  0  0  0
 12 40  1  0  0  0  0
 12106  1  0  0  0  0
 13 42  1  0  0  0  0
 13107  1  0  0  0  0
 14 36  2  0  0  0  0
 15 18  1  0  0  0  0
 15 31  1  0  0  0  0
 15 32  1  0  0  0  0
 16 17  1  0  0  0  0
 16 19  1  0  0  0  0
 16 54  1  0  0  0  0
 17 24  1  0  0  0  0
 17 26  1  0  0  0  0
 17 55  1  0  0  0  0
 18 20  1  0  0  0  0
 18 22  1  0  0  0  0
 18 57  1  0  0  0  0
 19 25  1  0  0  0  0
 19 28  1  0  0  0  0
 19 56  1  0  0  0  0
 20 21  1  0  0  0  0
 20 58  1  0  0  0  0
 21 59  1  0  0  0  0
 22 23  1  0  0  0  0
 22 60  1  0  0  0  0
 23 30  1  0  0  0  0
 23 61  1  0  0  0  0
 24 27  1  0  0  0  0
 24 62  1  0  0  0  0
 24 63  1  0  0  0  0
 25 29  1  0  0  0  0
 25 64  1  0  0  0  0
 26 35  1  0  0  0  0
 26 65  1  0  0  0  0
 26 66  1  0  0  0  0
 27 33  1  0  0  0  0
 27 34  1  0  0  0  0
 27 67  1  0  0  0  0
 28 68  1  0  0  0  0
 28 69  1  0  0  0  0
 28 70  1  0  0  0  0
 29 36  1  0  0  0  0
 29 71  1  0  0  0  0
 29 72  1  0  0  0  0
 30 73  1  0  0  0  0
 30 74  1  0  0  0  0
 30 75  1  0  0  0  0
 31 78  1  0  0  0  0
 31 79  1  0  0  0  0
 31 80  1  0  0  0  0
 32 81  1  0  0  0  0
 32 82  1  0  0  0  0
 32 83  1  0  0  0  0
 33 84  1  0  0  0  0
 33 85  1  0  0  0  0
 33 86  1  0  0  0  0
 34 45  1  0  0  0  0
 35 87  1  0  0  0  0
 37 40  1  0  0  0  0
 37 41  1  0  0  0  0
 37 89  1  0  0  0  0
 38 39  1  0  0  0  0
 38 46  1  0  0  0  0
 38 91  1  0  0  0  0
 39 44  1  0  0  0  0
 39 47  1  0  0  0  0
 39 90  1  0  0  0  0
 40 42  1  0  0  0  0
 40 92  1  0  0  0  0
 41 93  1  0  0  0  0
 42 43  1  0  0  0  0
 42 94  1  0  0  0  0
 43 48  1  0  0  0  0
 43 95  1  0  0  0  0
 44 96  1  0  0  0  0
 44 97  1  0  0  0  0
 45 50  2  0  0  0  0
 45 98  1  0  0  0  0
 46 51  1  0  0  0  0
 46 99  1  0  0  0  0
 46100  1  0  0  0  0
 47 49  2  0  0  0  0
 47101  1  0  0  0  0
 48102  1  0  0  0  0
 48103  1  0  0  0  0
 48104  1  0  0  0  0
 49 50  1  0  0  0  0
 49 52  1  0  0  0  0
 50105  1  0  0  0  0
 51108  1  0  0  0  0
 51109  1  0  0  0  0
 51110  1  0  0  0  0
 52111  1  0  0  0  0
 52112  1  0  0  0  0
 52113  1  0  0  0  0
 53114  1  0  0  0  0
 53115  1  0  0  0  0
 53116  1  0  0  0  0
M  END
> <PUBCHEM_COMPOUND_CID>
6444330

> <PUBCHEM_COMPOUND_CANONICALIZED>
1

> <PUBCHEM_CACTVS_COMPLEXITY>
1250

> <PUBCHEM_CACTVS_HBOND_ACCEPTOR>
15

> <PUBCHEM_CACTVS_HBOND_DONOR>
5

> <PUBCHEM_CACTVS_ROTATABLE_BOND>
10

> <PUBCHEM_CACTVS_SUBSKEYS>
AAADcfB+PAAAAAAAAAAAAAAAAAAAAAAAAAAkSAAAAAAAAAAAAAAAHgAACAAADTzxgAcCCAMABgCIAqjSiAAAAAAgAAAICAEIAEgbEBYAgQAmQAAH4AAfgYPK7OzOAAAAAAAAAAAAAAAAAAAAAAAAAAAAAA==

> <PUBCHEM_IUPAC_OPENEYE_NAME>
2-[(11Z,13E)-15-[(4,5-dihydroxy-3-methoxy-6-methyl-tetrahydropyran-2-yl)oxymethyl]-6-[4-(dimethylamino)-3,5-dihydroxy-6-methyl-tetrahydropyran-2-yl]oxy-16-ethyl-4-hydroxy-5,9,13-trimethyl-2,10-dioxo-1-oxacyclohexadeca-11,13-dien-7-yl]acetaldehyde

> <PUBCHEM_IUPAC_CAS_NAME>
2-[(11Z,13E)-15-[(4,5-dihydroxy-3-methoxy-6-methyl-2-oxanyl)oxymethyl]-6-[[4-(dimethylamino)-3,5-dihydroxy-6-methyl-2-oxanyl]oxy]-16-ethyl-4-hydroxy-5,9,13-trimethyl-2,10-dioxo-1-oxacyclohexadeca-11,13-dien-7-yl]acetaldehyde

> <PUBCHEM_IUPAC_NAME_MARKUP>
2-[(11<I>Z</I>,13<I>E</I>)-15-[(4,5-dihydroxy-3-methoxy-6-methyloxan-2-yl)oxymethyl]-6-[4-(dimethylamino)-3,5-dihydroxy-6-methyloxan-2-yl]oxy-16-ethyl-4-hydroxy-5,9,13-trimethyl-2,10-dioxo-1-oxacyclohexadeca-11,13-dien-7-yl]acetaldehyde

> <PUBCHEM_IUPAC_NAME>
2-[(11Z,13E)-15-[(4,5-dihydroxy-3-methoxy-6-methyloxan-2-yl)oxymethyl]-6-[4-(dimethylamino)-3,5-dihydroxy-6-methyloxan-2-yl]oxy-16-ethyl-4-hydroxy-5,9,13-trimethyl-2,10-dioxo-1-oxacyclohexadeca-11,13-dien-7-yl]acetaldehyde

> <PUBCHEM_IUPAC_SYSTEMATIC_NAME>
2-[(11Z,13E)-6-[4-(dimethylamino)-6-methyl-3,5-bis(oxidanyl)oxan-2-yl]oxy-16-ethyl-15-[[3-methoxy-6-methyl-4,5-bis(oxidanyl)oxan-2-yl]oxymethyl]-5,9,13-trimethyl-4-oxidanyl-2,10-bis(oxidanylidene)-1-oxacyclohexadeca-11,13-dien-7-yl]ethanal

> <PUBCHEM_IUPAC_TRADITIONAL_NAME>
2-[(11Z,13E)-15-[(4,5-dihydroxy-3-methoxy-6-methyl-tetrahydropyran-2-yl)oxymethyl]-6-[4-(dimethylamino)-3,5-dihydroxy-6-methyl-tetrahydropyran-2-yl]oxy-16-ethyl-4-hydroxy-2,10-diketo-5,9,13-trimethyl-1-oxacyclohexadeca-11,13-dien-7-yl]acetaldehyde

> <PUBCHEM_IUPAC_INCHI>
InChI=1S/C38H63NO14/c1-10-28-25(18-49-38-36(48-9)34(47)32(45)23(6)51-38)15-19(2)11-12-26(41)20(3)16-24(13-14-40)35(21(4)27(42)17-29(43)52-28)53-37-33(46)30(39(7)8)31(44)22(5)50-37/h11-12,14-15,20-25,27-28,30-38,42,44-47H,10,13,16-18H2,1-9H3/b12-11-,19-15+

> <PUBCHEM_IUPAC_INCHIKEY>
CFMSCYSETWZXRS-BDXFUOSDSA-N

> <PUBCHEM_XLOGP3_AA>
0.4

> <PUBCHEM_EXACT_MASS>
757.42485568

> <PUBCHEM_MOLECULAR_FORMULA>
C38H63NO14

> <PUBCHEM_MOLECULAR_WEIGHT>
757.9

> <PUBCHEM_OPENEYE_CAN_SMILES>
CCC1C(C=C(C=CC(=O)C(CC(C(C(C(CC(=O)O1)O)C)OC2C(C(C(C(O2)C)O)N(C)C)O)CC=O)C)C)COC3C(C(C(C(O3)C)O)O)OC

> <PUBCHEM_OPENEYE_ISO_SMILES>
CCC1C(/C=C(/C=C\C(=O)C(CC(C(C(C(CC(=O)O1)O)C)OC2C(C(C(C(O2)C)O)N(C)C)O)CC=O)C)\C)COC3C(C(C(C(O3)C)O)O)OC

> <PUBCHEM_CACTVS_TPSA>
211

> <PUBCHEM_MONOISOTOPIC_WEIGHT>
757.42485568

> <PUBCHEM_TOTAL_CHARGE>
0

> <PUBCHEM_HEAVY_ATOM_COUNT>
53

> <PUBCHEM_ATOM_DEF_STEREO_COUNT>
0

> <PUBCHEM_ATOM_UDEF_STEREO_COUNT>
17

> <PUBCHEM_BOND_DEF_STEREO_COUNT>
2

> <PUBCHEM_BOND_UDEF_STEREO_COUNT>
0

> <PUBCHEM_ISOTOPIC_ATOM_COUNT>
0

> <PUBCHEM_COMPONENT_COUNT>
1

> <PUBCHEM_CACTVS_TAUTO_COUNT>
-1

> <PUBCHEM_COORDINATE_TYPE>
1
5
255

> <PUBCHEM_BONDANNOTATIONS>
16  1  3
21  1  3
40  12  3
42  13  3
18  15  3
17  26  3
19  28  3
23  30  3
27  33  3
20  3  3
38  46  3
39  44  3
22  4  3
43  48  3
25  5  3
41  8  3
37  9  3

$$$$
