18
Coordinates from ORCA-job orca E -272.934128336101
  O           0.95353279822964     -2.59116382840763     -0.22569483380698
  C           0.51832236412972     -1.55414092238245      0.65141423615487
  C           0.53644303820858     -0.24694327101667     -0.11894671075584
  C           0.14226588918214      0.96490355368690      0.74258425440124
  C           1.32390702317006      1.78701291002463      1.26490439767036
  C           2.28188644052348      1.01831263880620      2.17010162920883
  H           0.93641036309473     -3.42260135360966      0.25182474252964
  H          -0.50502686265159     -1.74802453697407      1.01025516737517
  H           1.17026221578917     -1.48857324215744      1.53452470192709
  H           1.53670167305437     -0.10267492889322     -0.54381314088164
  H          -0.14494464978582     -0.35389442547064     -0.96845079325240
  H          -0.46566787992364      0.62692885043626      1.59290330427775
  H          -0.50396933491743      1.62847729350412      0.16002104690714
  H           1.87924007045550      2.18759185536914      0.40801181036943
  H           0.93385500638343      2.65483195400195      1.80882376595912
  H           3.06988622969305      1.67203143206249      2.55213290538465
  H           1.75523670894805      0.59412283177062      3.03060855744679
  H           2.76955890641654      0.19740318924948      1.63819495908479
